
  Mrv1909 04132319292D          

 12 13  0  0  0  0            999 V2000
    0.6411   -0.2854    0.0000 C   0  0  0  0  0  0  0  0  0  0  0  0
    0.6411   -1.1104    0.0000 C   0  0  0  0  0  0  0  0  0  0  0  0
    1.3556    0.1271    0.0000 C   0  0  0  0  0  0  0  0  0  0  0  0
   -0.6284   -0.6979    0.0000 C   0  0  0  0  0  0  0  0  0  0  0  0
    2.0701   -1.1104    0.0000 C   0  0  0  0  0  0  0  0  0  0  0  0
   -0.1435   -0.0305    0.0000 N   0  0  0  0  0  0  0  0  0  0  0  0
   -0.1435   -1.3653    0.0000 N   0  0  0  0  0  0  0  0  0  0  0  0
    1.3556   -1.5229    0.0000 N   0  0  0  0  0  0  0  0  0  0  0  0
    2.0701   -0.2854    0.0000 N   0  0  0  0  0  0  0  0  0  0  0  0
    1.3556    0.9521    0.0000 O   0  0  0  0  0  0  0  0  0  0  0  0
   -1.4534   -0.6979    0.0000 O   0  0  0  0  0  0  0  0  0  0  0  0
    2.7845   -1.5229    0.0000 O   0  0  0  0  0  0  0  0  0  0  0  0
  2  1  2  0  0  0  0
  3  1  1  0  0  0  0
  6  1  1  0  0  0  0
  6  4  1  0  0  0  0
  7  2  1  0  0  0  0
  7  4  1  0  0  0  0
  8  2  1  0  0  0  0
  8  5  1  0  0  0  0
  9  3  1  0  0  0  0
  9  5  1  0  0  0  0
 10  3  2  0  0  0  0
 11  4  2  0  0  0  0
 12  5  2  0  0  0  0
M  END
> <DATABASE_ID>
DB08844

> <DATABASE_NAME>
drugbank

> <SMILES>
O=C1NC2=C(N1)C(=O)NC(=O)N2

> <INCHI_IDENTIFIER>
InChI=1S/C5H4N4O3/c10-3-1-2(7-4(11)6-1)8-5(12)9-3/h(H4,6,7,8,9,10,11,12)

> <INCHI_KEY>
LEHOTFFKMJEONL-UHFFFAOYSA-N

> <FORMULA>
C5H4N4O3

> <MOLECULAR_WEIGHT>
168.1103

> <EXACT_MASS>
168.028340014

> <JCHEM_ACCEPTOR_COUNT>
3

> <JCHEM_ATOM_COUNT>
16

> <JCHEM_AVERAGE_NEUTRAL_MICROSPECIES_CHARGE>
-0.3798421077333849

> <JCHEM_AVERAGE_POLARIZABILITY>
13.613776026394035

> <JCHEM_BIOAVAILABILITY>
1

> <JCHEM_DONOR_COUNT>
4

> <JCHEM_FORMAL_CHARGE>
0

> <JCHEM_GHOSE_FILTER>
0

> <JCHEM_IUPAC>
2,3,6,7,8,9-hexahydro-1H-purine-2,6,8-trione

> <JCHEM_LOGP>
-1.5441929356666664

> <JCHEM_MDDR_LIKE_RULE>
0

> <JCHEM_NEUTRAL_CHARGE>
0

> <JCHEM_NUMBER_OF_RINGS>
2

> <JCHEM_PHYSIOLOGICAL_CHARGE>
-1

> <JCHEM_PKA>
8.972761778718843

> <JCHEM_PKA_STRONGEST_ACIDIC>
7.246926773305706

> <JCHEM_PKA_STRONGEST_BASIC>
-6.523072814060841

> <JCHEM_POLAR_SURFACE_AREA>
99.32999999999998

> <JCHEM_REFRACTIVITY>
45.6286

> <JCHEM_ROTATABLE_BOND_COUNT>
0

> <JCHEM_RULE_OF_FIVE>
1

> <JCHEM_TRADITIONAL_IUPAC>
4-{1-[4-cyclobutyl-2-methyl-5-(5-methyl-1H-1,2,4-triazol-3-yl)benzoyl]piperidin-4-yl}benzonitrile

> <JCHEM_VEBER_RULE>
0

> <DRUGBANK_ID>
DB08844

> <SECONDARY_ACCESSION_NUMBERS>
DB01696; EXPT03202

> <DRUG_GROUPS>
investigational

> <GENERIC_NAME>
Uric acid

> <SYNONYMS>
2,6,8-trihydroxypurine; 2,6,8-trioxopurine; 2,6,8-trioxypurine; 7,9-dihydro-1H-purine-2,6,8(3H)-trione; Lithic acid; Purine-2,6,8(1H,3H,9H)-trione; Urate; Uricum acidum

$$$$
