
  Mrv2304 08022320132D          

 53 58  0  0  0  0            999 V2000
    3.1182   -1.2042    0.0000 C   0  0  0  0  0  0  0  0  0  0  0  0
    3.5082   -0.4772    0.0000 C   0  0  0  0  0  0  0  0  0  0  0  0
    4.1904   -0.9410    0.0000 C   0  0  0  0  0  0  0  0  0  0  0  0
    2.7444   -0.1653    0.0000 C   0  0  0  0  0  0  0  0  0  0  0  0
    2.0431   -0.6000    0.0000 C   0  0  0  0  0  0  0  0  0  0  0  0
    1.3161   -0.2100    0.0000 C   0  0  0  0  0  0  0  0  0  0  0  0
    0.6149   -0.6446    0.0000 C   0  0  0  0  0  0  0  0  0  0  0  0
   -0.1120   -0.2546    0.0000 C   0  0  0  0  0  0  0  0  0  0  0  0
   -0.8132   -0.6892    0.0000 C   0  0  0  0  0  0  0  0  0  0  0  0
   -1.5403   -0.2992    0.0000 C   0  0  0  0  0  0  0  0  0  0  0  0
   -2.2415   -0.7338    0.0000 C   0  0  0  0  0  0  0  0  0  0  0  0
   -2.9685   -0.3438    0.0000 C   0  0  0  0  0  0  0  0  0  0  0  0
   -3.7114   -0.7028    0.0000 N   0  3  0  0  0  0  0  0  0  0  0  0
   -3.8576   -1.5147    0.0000 C   0  0  0  0  0  0  0  0  0  0  0  0
   -4.6339   -1.7940    0.0000 C   0  0  0  0  0  0  0  0  0  0  0  0
   -4.7801   -2.6059    0.0000 C   0  0  0  0  0  0  0  0  0  0  0  0
   -5.5564   -2.8853    0.0000 C   0  0  0  0  0  0  0  0  0  0  0  0
   -5.7026   -3.6972    0.0000 S   0  0  0  0  0  0  0  0  0  0  0  0
   -5.8489   -4.5091    0.0000 O   0  5  0  0  0  0  0  0  0  0  0  0
   -4.8907   -3.8434    0.0000 O   0  0  0  0  0  0  0  0  0  0  0  0
   -6.5146   -3.5509    0.0000 O   0  0  0  0  0  0  0  0  0  0  0  0
   -4.2823   -0.1072    0.0000 C   0  0  0  0  0  0  0  0  0  0  0  0
   -5.1068   -0.1330    0.0000 C   0  0  0  0  0  0  0  0  0  0  0  0
   -5.5415    0.5682    0.0000 C   0  0  0  0  0  0  0  0  0  0  0  0
   -5.1515    1.2952    0.0000 C   0  0  0  0  0  0  0  0  0  0  0  0
   -5.5861    1.9965    0.0000 C   0  0  0  0  0  0  0  0  0  0  0  0
   -5.1961    2.7234    0.0000 C   0  0  0  0  0  0  0  0  0  0  0  0
   -4.3715    2.7492    0.0000 C   0  0  0  0  0  0  0  0  0  0  0  0
   -3.9369    2.0480    0.0000 C   0  0  0  0  0  0  0  0  0  0  0  0
   -4.3269    1.3210    0.0000 C   0  0  0  0  0  0  0  0  0  0  0  0
   -3.8923    0.6197    0.0000 C   0  0  0  0  0  0  0  0  0  0  0  0
   -3.0803    0.4735    0.0000 C   0  0  0  0  0  0  0  0  0  0  0  0
   -2.8417    1.2632    0.0000 C   0  0  0  0  0  0  0  0  0  0  0  0
   -2.2812    0.6785    0.0000 C   0  0  0  0  0  0  0  0  0  0  0  0
    2.8049    0.6573    0.0000 N   0  0  0  0  0  0  0  0  0  0  0  0
    2.1749    1.1900    0.0000 C   0  0  0  0  0  0  0  0  0  0  0  0
    2.3212    2.0019    0.0000 C   0  0  0  0  0  0  0  0  0  0  0  0
    1.6911    2.5345    0.0000 C   0  0  0  0  0  0  0  0  0  0  0  0
    1.8374    3.3465    0.0000 C   0  0  0  0  0  0  0  0  0  0  0  0
    1.2073    3.8791    0.0000 S   0  0  0  0  0  0  0  0  0  0  0  0
    0.5773    4.4117    0.0000 O   0  0  0  0  0  0  0  0  0  0  0  0
    1.7399    4.5091    0.0000 O   0  0  0  0  0  0  0  0  0  0  0  0
    0.6747    3.2491    0.0000 O   0  0  0  0  0  0  0  0  0  0  0  0
    3.6061    0.8540    0.0000 C   0  0  0  0  0  0  0  0  0  0  0  0
    3.9961    1.5810    0.0000 C   0  0  0  0  0  0  0  0  0  0  0  0
    4.8208    1.6068    0.0000 C   0  0  0  0  0  0  0  0  0  0  0  0
    5.2553    0.9055    0.0000 C   0  0  0  0  0  0  0  0  0  0  0  0
    6.0800    0.9313    0.0000 C   0  0  0  0  0  0  0  0  0  0  0  0
    6.5146    0.2300    0.0000 C   0  0  0  0  0  0  0  0  0  0  0  0
    6.1246   -0.4969    0.0000 C   0  0  0  0  0  0  0  0  0  0  0  0
    5.3000   -0.5226    0.0000 C   0  0  0  0  0  0  0  0  0  0  0  0
    4.8654    0.1785    0.0000 C   0  0  0  0  0  0  0  0  0  0  0  0
    4.0408    0.1527    0.0000 C   0  0  0  0  0  0  0  0  0  0  0  0
  1  2  1  0  0  0  0
  2  3  1  0  0  0  0
  2  4  1  0  0  0  0
  4  5  2  0  0  0  0
  5  6  1  4  0  0  0
  6  7  2  0  0  0  0
  7  8  1  4  0  0  0
  8  9  2  0  0  0  0
  9 10  1  4  0  0  0
 10 11  2  0  0  0  0
 11 12  1  4  0  0  0
 12 13  2  0  0  0  0
 13 14  1  0  0  0  0
 14 15  1  0  0  0  0
 15 16  1  0  0  0  0
 16 17  1  0  0  0  0
 17 18  1  0  0  0  0
 18 19  1  0  0  0  0
 18 20  2  0  0  0  0
 18 21  2  0  0  0  0
 13 22  1  0  0  0  0
 22 23  2  0  0  0  0
 23 24  1  0  0  0  0
 24 25  2  0  0  0  0
 25 26  1  0  0  0  0
 26 27  2  0  0  0  0
 27 28  1  0  0  0  0
 28 29  2  0  0  0  0
 29 30  1  0  0  0  0
 25 30  1  0  0  0  0
 30 31  2  0  0  0  0
 22 31  1  0  0  0  0
 31 32  1  0  0  0  0
 12 32  1  0  0  0  0
 32 33  1  0  0  0  0
 32 34  1  0  0  0  0
  4 35  1  0  0  0  0
 35 36  1  0  0  0  0
 36 37  1  0  0  0  0
 37 38  1  0  0  0  0
 38 39  1  0  0  0  0
 39 40  1  0  0  0  0
 40 41  1  0  0  0  0
 40 42  2  0  0  0  0
 40 43  2  0  0  0  0
 35 44  1  0  0  0  0
 44 45  2  0  0  0  0
 45 46  1  0  0  0  0
 46 47  2  0  0  0  0
 47 48  1  0  0  0  0
 48 49  2  0  0  0  0
 49 50  1  0  0  0  0
 50 51  2  0  0  0  0
 51 52  1  0  0  0  0
 47 52  1  0  0  0  0
 52 53  2  0  0  0  0
  2 53  1  0  0  0  0
 44 53  1  0  0  0  0
M  CHG  2  13   1  19  -1
M  END
> <DATABASE_ID>
DB09374

> <DATABASE_NAME>
drugbank

> <SMILES>
CC1(C)C(=CC=CC=CC=CC2=[N+](CCCCS([O-])(=O)=O)C3=CC=C4C=CC=CC4=C3C2(C)C)N(CCCCS(O)(=O)=O)C2=CC=C3C=CC=CC3=C12

> <INCHI_IDENTIFIER>
InChI=1S/C43H48N2O6S2/c1-42(2)38(44(28-14-16-30-52(46,47)48)36-26-24-32-18-10-12-20-34(32)40(36)42)22-8-6-5-7-9-23-39-43(3,4)41-35-21-13-11-19-33(35)25-27-37(41)45(39)29-15-17-31-53(49,50)51/h5-13,18-27H,14-17,28-31H2,1-4H3,(H-,46,47,48,49,50,51)

> <INCHI_KEY>
BDBMLMBYCXNVMC-UHFFFAOYSA-N

> <FORMULA>
C43H48N2O6S2

> <MOLECULAR_WEIGHT>
752.99

> <EXACT_MASS>
752.295379622

> <JCHEM_ACCEPTOR_COUNT>
7

> <JCHEM_ATOM_COUNT>
101

> <JCHEM_AVERAGE_NEUTRAL_MICROSPECIES_CHARGE>
0.4345048600802244

> <JCHEM_AVERAGE_POLARIZABILITY>
86.55161339636985

> <JCHEM_BIOAVAILABILITY>
0

> <JCHEM_DONOR_COUNT>
1

> <JCHEM_FORMAL_CHARGE>
0

> <JCHEM_GHOSE_FILTER>
0

> <JCHEM_IUPAC>
2-{7-[1,1-dimethyl-3-(4-sulfobutyl)-1H,2H,3H-benzo[e]indol-2-ylidene]hepta-1,3,5-trien-1-yl}-1,1-dimethyl-3-(4-sulfonatobutyl)-1H-benzo[e]indol-3-ium

> <JCHEM_LOGP>
6.049278883904668

> <JCHEM_MDDR_LIKE_RULE>
1

> <JCHEM_NEUTRAL_CHARGE>
-1

> <JCHEM_NUMBER_OF_RINGS>
6

> <JCHEM_PHYSIOLOGICAL_CHARGE>
-1

> <JCHEM_PKA>
-0.3064099148390301

> <JCHEM_PKA_STRONGEST_ACIDIC>
-0.9355888130974745

> <JCHEM_PKA_STRONGEST_BASIC>
4.854842341395891

> <JCHEM_POLAR_SURFACE_AREA>
117.82

> <JCHEM_REFRACTIVITY>
230.00479999999996

> <JCHEM_ROTATABLE_BOND_COUNT>
14

> <JCHEM_RULE_OF_FIVE>
0

> <JCHEM_TRADITIONAL_IUPAC>
2-{7-[1,1-dimethyl-3-(4-sulfobutyl)benzo[e]indol-2-ylidene]hepta-1,3,5-trien-1-yl}-1,1-dimethyl-3-(4-sulfonatobutyl)benzo[e]indol-3-ium

> <JCHEM_VEBER_RULE>
0

> <DRUGBANK_ID>
DB09374

> <DRUG_GROUPS>
approved; investigational

> <GENERIC_NAME>
Indocyanine green acid form

> <PRODUCTS>
IC-Green; Ic-green; Icg; Indocyanine Green; Indocyanine green; PINPOINT Kit; PINPOINT Lymphatics Kit; SPY Elite Kit; SPY Lymphatics Kit; SPY-MIS Kit; SPY-PHI Kit

> <SALTS>
Indocyanine green

$$$$
