
  Mrv2304 08022320152D          

 54 58  0  0  0  0            999 V2000
   -5.9951   -4.9151    0.0000 Na  0  3  0  0  0  0  0  0  0  0  0  0
    3.1182   -0.7982    0.0000 C   0  0  0  0  0  0  0  0  0  0  0  0
    3.5082   -0.0712    0.0000 C   0  0  0  0  0  0  0  0  0  0  0  0
    4.1904   -0.5351    0.0000 C   0  0  0  0  0  0  0  0  0  0  0  0
    2.7444    0.2405    0.0000 C   0  0  0  0  0  0  0  0  0  0  0  0
    2.0431   -0.1940    0.0000 C   0  0  0  0  0  0  0  0  0  0  0  0
    1.3161    0.1959    0.0000 C   0  0  0  0  0  0  0  0  0  0  0  0
    0.6149   -0.2386    0.0000 C   0  0  0  0  0  0  0  0  0  0  0  0
   -0.1120    0.1513    0.0000 C   0  0  0  0  0  0  0  0  0  0  0  0
   -0.8132   -0.2832    0.0000 C   0  0  0  0  0  0  0  0  0  0  0  0
   -1.5403    0.1067    0.0000 C   0  0  0  0  0  0  0  0  0  0  0  0
   -2.2415   -0.3279    0.0000 C   0  0  0  0  0  0  0  0  0  0  0  0
   -2.9685    0.0620    0.0000 C   0  0  0  0  0  0  0  0  0  0  0  0
   -3.7114   -0.2968    0.0000 N   0  3  0  0  0  0  0  0  0  0  0  0
   -3.8576   -1.1087    0.0000 C   0  0  0  0  0  0  0  0  0  0  0  0
   -4.6339   -1.3880    0.0000 C   0  0  0  0  0  0  0  0  0  0  0  0
   -4.7801   -2.2000    0.0000 C   0  0  0  0  0  0  0  0  0  0  0  0
   -5.5564   -2.4793    0.0000 C   0  0  0  0  0  0  0  0  0  0  0  0
   -5.7026   -3.2912    0.0000 S   0  0  0  0  0  0  0  0  0  0  0  0
   -5.8489   -4.1031    0.0000 O   0  5  0  0  0  0  0  0  0  0  0  0
   -4.8907   -3.4375    0.0000 O   0  0  0  0  0  0  0  0  0  0  0  0
   -6.5146   -3.1450    0.0000 O   0  0  0  0  0  0  0  0  0  0  0  0
   -4.2823    0.2987    0.0000 C   0  0  0  0  0  0  0  0  0  0  0  0
   -5.1068    0.2729    0.0000 C   0  0  0  0  0  0  0  0  0  0  0  0
   -5.5415    0.9741    0.0000 C   0  0  0  0  0  0  0  0  0  0  0  0
   -5.1515    1.7012    0.0000 C   0  0  0  0  0  0  0  0  0  0  0  0
   -5.5861    2.4024    0.0000 C   0  0  0  0  0  0  0  0  0  0  0  0
   -5.1961    3.1294    0.0000 C   0  0  0  0  0  0  0  0  0  0  0  0
   -4.3715    3.1551    0.0000 C   0  0  0  0  0  0  0  0  0  0  0  0
   -3.9369    2.4540    0.0000 C   0  0  0  0  0  0  0  0  0  0  0  0
   -4.3269    1.7269    0.0000 C   0  0  0  0  0  0  0  0  0  0  0  0
   -3.8923    1.0257    0.0000 C   0  0  0  0  0  0  0  0  0  0  0  0
   -3.0803    0.8794    0.0000 C   0  0  0  0  0  0  0  0  0  0  0  0
   -2.8417    1.6692    0.0000 C   0  0  0  0  0  0  0  0  0  0  0  0
   -2.2812    1.0845    0.0000 C   0  0  0  0  0  0  0  0  0  0  0  0
    2.8049    1.0633    0.0000 N   0  0  0  0  0  0  0  0  0  0  0  0
    2.1749    1.5960    0.0000 C   0  0  0  0  0  0  0  0  0  0  0  0
    2.3212    2.4079    0.0000 C   0  0  0  0  0  0  0  0  0  0  0  0
    1.6911    2.9405    0.0000 C   0  0  0  0  0  0  0  0  0  0  0  0
    1.8374    3.7524    0.0000 C   0  0  0  0  0  0  0  0  0  0  0  0
    1.2073    4.2850    0.0000 S   0  0  0  0  0  0  0  0  0  0  0  0
    0.5773    4.8176    0.0000 O   0  5  0  0  0  0  0  0  0  0  0  0
    1.7399    4.9151    0.0000 O   0  0  0  0  0  0  0  0  0  0  0  0
    0.6747    3.6550    0.0000 O   0  0  0  0  0  0  0  0  0  0  0  0
    3.6061    1.2600    0.0000 C   0  0  0  0  0  0  0  0  0  0  0  0
    3.9961    1.9870    0.0000 C   0  0  0  0  0  0  0  0  0  0  0  0
    4.8208    2.0127    0.0000 C   0  0  0  0  0  0  0  0  0  0  0  0
    5.2553    1.3115    0.0000 C   0  0  0  0  0  0  0  0  0  0  0  0
    6.0800    1.3373    0.0000 C   0  0  0  0  0  0  0  0  0  0  0  0
    6.5146    0.6360    0.0000 C   0  0  0  0  0  0  0  0  0  0  0  0
    6.1246   -0.0909    0.0000 C   0  0  0  0  0  0  0  0  0  0  0  0
    5.3000   -0.1167    0.0000 C   0  0  0  0  0  0  0  0  0  0  0  0
    4.8654    0.5845    0.0000 C   0  0  0  0  0  0  0  0  0  0  0  0
    4.0408    0.5587    0.0000 C   0  0  0  0  0  0  0  0  0  0  0  0
  2  3  1  0  0  0  0
  3  4  1  0  0  0  0
  3  5  1  0  0  0  0
  5  6  2  0  0  0  0
  6  7  1  4  0  0  0
  7  8  2  0  0  0  0
  8  9  1  4  0  0  0
  9 10  2  0  0  0  0
 10 11  1  4  0  0  0
 11 12  2  0  0  0  0
 12 13  1  4  0  0  0
 13 14  2  0  0  0  0
 14 15  1  0  0  0  0
 15 16  1  0  0  0  0
 16 17  1  0  0  0  0
 17 18  1  0  0  0  0
 18 19  1  0  0  0  0
 19 20  1  0  0  0  0
 19 21  2  0  0  0  0
 19 22  2  0  0  0  0
 14 23  1  0  0  0  0
 23 24  2  0  0  0  0
 24 25  1  0  0  0  0
 25 26  2  0  0  0  0
 26 27  1  0  0  0  0
 27 28  2  0  0  0  0
 28 29  1  0  0  0  0
 29 30  2  0  0  0  0
 30 31  1  0  0  0  0
 26 31  1  0  0  0  0
 31 32  2  0  0  0  0
 23 32  1  0  0  0  0
 32 33  1  0  0  0  0
 13 33  1  0  0  0  0
 33 34  1  0  0  0  0
 33 35  1  0  0  0  0
  5 36  1  0  0  0  0
 36 37  1  0  0  0  0
 37 38  1  0  0  0  0
 38 39  1  0  0  0  0
 39 40  1  0  0  0  0
 40 41  1  0  0  0  0
 41 42  1  0  0  0  0
 41 43  2  0  0  0  0
 41 44  2  0  0  0  0
 36 45  1  0  0  0  0
 45 46  2  0  0  0  0
 46 47  1  0  0  0  0
 47 48  2  0  0  0  0
 48 49  1  0  0  0  0
 49 50  2  0  0  0  0
 50 51  1  0  0  0  0
 51 52  2  0  0  0  0
 52 53  1  0  0  0  0
 48 53  1  0  0  0  0
 53 54  2  0  0  0  0
  3 54  1  0  0  0  0
 45 54  1  0  0  0  0
M  CHG  4   1   1  14   1  20  -1  42  -1
M  END
> <DATABASE_ID>
DB16024

> <DATABASE_NAME>
drugbank

> <SMILES>
[Na+].CC1(C)C(=CC=CC=CC=CC2=[N+](CCCCS([O-])(=O)=O)C3=CC=C4C=CC=CC4=C3C2(C)C)N(CCCCS([O-])(=O)=O)C2=CC=C3C=CC=CC3=C12

> <INCHI_IDENTIFIER>
InChI=1S/C43H48N2O6S2.Na/c1-42(2)38(44(28-14-16-30-52(46,47)48)36-26-24-32-18-10-12-20-34(32)40(36)42)22-8-6-5-7-9-23-39-43(3,4)41-35-21-13-11-19-33(35)25-27-37(41)45(39)29-15-17-31-53(49,50)51;/h5-13,18-27H,14-17,28-31H2,1-4H3,(H-,46,47,48,49,50,51);/q;+1/p-1

> <INCHI_KEY>
MOFVSTNWEDAEEK-UHFFFAOYSA-M

> <FORMULA>
C43H47N2NaO6S2

> <MOLECULAR_WEIGHT>
774.97

> <EXACT_MASS>
774.27732387

> <JCHEM_ACCEPTOR_COUNT>
7

> <JCHEM_ATOM_COUNT>
101

> <JCHEM_AVERAGE_NEUTRAL_MICROSPECIES_CHARGE>
0.4345048600802244

> <JCHEM_AVERAGE_POLARIZABILITY>
86.07737217419438

> <JCHEM_BIOAVAILABILITY>
0

> <JCHEM_DONOR_COUNT>
0

> <JCHEM_FORMAL_CHARGE>
0

> <JCHEM_GHOSE_FILTER>
0

> <JCHEM_IUPAC>
sodium 2-{7-[1,1-dimethyl-3-(4-sulfonatobutyl)-1H,2H,3H-benzo[e]indol-2-ylidene]hepta-1,3,5-trien-1-yl}-1,1-dimethyl-3-(4-sulfonatobutyl)-1H-benzo[e]indol-3-ium

> <JCHEM_LOGP>
6.049278883904668

> <JCHEM_MDDR_LIKE_RULE>
1

> <JCHEM_NEUTRAL_CHARGE>
0

> <JCHEM_NUMBER_OF_RINGS>
6

> <JCHEM_PHYSIOLOGICAL_CHARGE>
0

> <JCHEM_PKA>
-0.3064099148390301

> <JCHEM_PKA_STRONGEST_ACIDIC>
-0.9355888130974745

> <JCHEM_PKA_STRONGEST_BASIC>
4.854842341395891

> <JCHEM_POLAR_SURFACE_AREA>
120.65

> <JCHEM_REFRACTIVITY>
228.88309999999996

> <JCHEM_ROTATABLE_BOND_COUNT>
14

> <JCHEM_RULE_OF_FIVE>
0

> <JCHEM_TRADITIONAL_IUPAC>
indocyanine green

> <JCHEM_VEBER_RULE>
0

> <DRUGBANK_ID>
DB16024

> <DRUG_GROUPS>
approved; experimental

> <GENERIC_NAME>
Indocyanine green

> <SYNONYMS>
Indocyanine green

> <PRODUCTS>
IC-Green; Indocyanine Green for Injection Kit; Indocyanine Green for Injection, USP; Spy Agent Green; Spy Agent Green Kit for Advanced Imaging Modality (aim) and Pinpoint; Spy Agent Green Kit for Spy Elite; Spy Agent Green Kit for Spy-phi; Spy Agent Green Lymphatics Kit for Advanced Imaging Modality (aim) and Pinpoint

$$$$
