
  Mrv1909 01032320012D          

  1  0  0  0  0  0            999 V2000
    0.0000    0.0000    0.0000 Xe  0  0  0  0  0  0  0  0  0  0  0  0
M  ISO  1   1 129
M  END
> <DATABASE_ID>
DB17386

> <DATABASE_NAME>
drugbank

> <SMILES>
[129Xe]

> <INCHI_IDENTIFIER>
InChI=1S/Xe/i1-2

> <INCHI_KEY>
FHNFHKCVQCLJFQ-YPZZEJLDSA-N

> <FORMULA>
Xe

> <MOLECULAR_WEIGHT>
128.9048

> <EXACT_MASS>
128.90478086

> <JCHEM_ACCEPTOR_COUNT>
0

> <JCHEM_ATOM_COUNT>
1

> <JCHEM_AVERAGE_NEUTRAL_MICROSPECIES_CHARGE>
0.0

> <JCHEM_AVERAGE_POLARIZABILITY>
1.7784

> <JCHEM_BIOAVAILABILITY>
1

> <JCHEM_DONOR_COUNT>
0

> <JCHEM_FORMAL_CHARGE>
0

> <JCHEM_GHOSE_FILTER>
0

> <JCHEM_IUPAC>
(129Xe)xenon

> <JCHEM_LOGP>
0.0

> <JCHEM_MDDR_LIKE_RULE>
0

> <JCHEM_NEUTRAL_CHARGE>
0

> <JCHEM_NUMBER_OF_RINGS>
0

> <JCHEM_PHYSIOLOGICAL_CHARGE>
0

> <JCHEM_POLAR_SURFACE_AREA>
0.0

> <JCHEM_REFRACTIVITY>
0.0

> <JCHEM_ROTATABLE_BOND_COUNT>
0

> <JCHEM_RULE_OF_FIVE>
1

> <JCHEM_TRADITIONAL_IUPAC>
2-[(2S)-4-[7-(8-chloronaphthalen-1-yl)-2-{[(2S)-1-methylpyrrolidin-2-yl]methoxy}-5H,6H,8H-pyrido[3,4-d]pyrimidin-4-yl]-1-(2-fluoroprop-2-enoyl)piperazin-2-yl]acetonitrile

> <JCHEM_VEBER_RULE>
1

> <DRUGBANK_ID>
DB17386

> <DRUG_GROUPS>
approved

> <GENERIC_NAME>
Xenon Xe-129

> <SYNONYMS>
Xenon xe-129m; Xenon-129m; Xenon, isotope of mass 129; Xenon, isotope of mass 129m(8.88 d); Xenon, xe-129m

> <PRODUCTS>
Xenoview

$$$$
